/*--------------------------------*- C++ -*----------------------------------*\
| =========                 |                                                 |
| \\      /  F ield         | OpenFOAM: The Open Source CFD Toolbox           |
|  \\    /   O peration     | Version:  v1812                                 |
|   \\  /    A nd           | Web:      www.OpenFOAM.com                      |
|    \\/     M anipulation  |                                                 |
\*---------------------------------------------------------------------------*/
FoamFile
{
    version     2.0;
    format      binary;
    class       volVectorField;
    arch        "LSB;label=64;scalar=64";
    location    "0";
    object      F_EHD;
}
// * * * * * * * * * * * * * * * * * * * * * * * * * * * * * * * * * * * * * //

dimensions      [1 -2 -2 0 0 0 0];


internalField   uniform (0 0 100);

boundaryField
{
    inletCH4
    {
        type            fixedValue;
        value           uniform (0 0 49.6);
    }
    wallOutside
    {
        type            zeroGradient;
    }
    wallTube
    {
        type            noSlip;
    }
    inletPilot
    {
        type            fixedValue;
        value           uniform (0 0 11.4);
    }
    inletAir
    {
        type            fixedValue;
        value           uniform (0 0 0.9);
    }
    outlet
    {
        type            pressureInletOutletVelocity;
        value           uniform (0 0 100);
    }
    axis
    {
        type            empty;
    }
    frontAndBack_pos
    {
        type            wedge;
    }
    frontAndBack_neg
    {
        type            wedge;
    }
    procBoundary0to1
    {
        type            processor;
        value           uniform (0 0 100);
    }
}


// ************************************************************************* //
